# created with PyMOL 2.3.0
@<TRIPOS>MOLECULE
Molecule Name
30 30 1                 
SMALL
USER_CHARGES
@<TRIPOS>ATOM
1	  C1	-59.092	103.902	7.352	C.2	1	UNK0	0.000	
2	  O2	-58.952	103.962	6.103	O.co2	1	UNK0	0.000	
3	  O3	-58.431	104.849	8.196	O.3	1	UNK0	0.000	
4	  C4	-58.988	106.149	7.983	C.3	1	UNK0	0.000	
5	  H5	-58.853	106.431	6.960	 H	1	UNK0	0.000	
6	  H6	-60.033	106.131	8.214	 H	1	UNK0	0.000	
7	  C7	-58.278	107.167	8.895	C.3	1	UNK0	0.000	
8	  H8	-57.234	107.184	8.664	 H	1	UNK0	0.000	
9	  H9	-58.695	108.139	8.735	 H	1	UNK0	0.000	
10	 H10	-58.413	106.884	9.918	 H	1	UNK0	0.000	
11	 C11	-59.977	102.806	7.974	C.3	1	UNK0	0.000	
12	 H12	-61.001	103.115	7.944	 H	1	UNK0	0.000	
13	 H13	-59.683	102.644	8.990	 H	1	UNK0	0.000	
14	 C14	-59.812	101.499	7.176	C.3	1	UNK0	0.000	
15	 H15	-58.770	101.295	7.038	 H	1	UNK0	0.000	
16	 C16	-60.463	100.339	7.952	C.2	1	UNK0	0.000	
17	 C17	-61.834	100.106	7.837	C.2	1	UNK0	0.000	
18	 C18	-59.683	99.521	8.768	C.2	1	UNK0	0.000	
19	 C19	-62.424	99.056	8.539	C.2	1	UNK0	0.000	
20	 H20	-62.449	100.752	7.194	 H	1	UNK0	0.000	
21	 C21	-60.273	98.469	9.470	C.2	1	UNK0	0.000	
22	 H22	-58.602	99.704	8.858	 H	1	UNK0	0.000	
23	 C23	-61.643	98.237	9.356	C.2	1	UNK0	0.000	
24	 H24	-63.505	98.873	8.450	 H	1	UNK0	0.000	
25	 H25	-59.657	97.824	10.114	 H	1	UNK0	0.000	
26	 H26	-62.109	97.409	9.910	 H	1	UNK0	0.000	
27	 C27	-60.493	101.646	5.803	C.3	1	UNK0	0.000	
28	 H28	-61.306	102.337	5.880	 H	1	UNK0	0.000	
29	 H29	-59.783	102.008	5.089	 H	1	UNK0	0.000	
30	 H30	-60.864	100.694	5.486	 H	1	UNK0	0.000	
@<TRIPOS>BOND
1 1 2 2
2 1 3 1
3 1 11 1
4 3 4 1
5 4 5 1
6 4 6 1
7 4 7 1
8 7 8 1
9 7 9 1
10 7 10 1
11 11 12 1
12 11 13 1
13 11 14 1
14 14 15 1
15 14 16 1
16 14 27 1
17 16 17 ar
18 16 18 ar
19 17 19 ar
20 17 20 1
21 18 21 ar
22 18 22 1
23 19 23 ar
24 19 24 1
25 21 23 ar
26 21 25 1
27 23 26 1
28 27 28 1
29 27 29 1
30 27 30 1
@<TRIPOS>SUBSTRUCTURE
1	UNK0	1	GROUP	1 ****	UNK
M NBR 2
M CHG 0
