# created with PyMOL 2.3.0
@<TRIPOS>MOLECULE
1afq
28 29 1                 
SMALL
USER_CHARGES
@<TRIPOS>ATOM
1	   N	32.142	1.941	44.280	N.3	1	0FG301	0.000	
2	  CA	32.871	1.977	42.999	C.3	1	0FG301	0.000	
3	 CA1	31.427	2.087	39.470	C.3	1	0FG301	0.000	
4	   C	31.939	2.333	41.842	C.2	1	0FG301	0.000	
5	   O	31.021	3.131	42.000	O.2	1	0FG301	0.000	
6	  CB	34.026	2.968	43.075	C.3	1	0FG301	0.000	
7	 CB1	31.986	1.377	38.239	C.3	1	0FG301	0.000	
8	  CG	34.897	3.010	41.876	C.3	1	0FG301	0.000	
9	 CG1	33.252	2.003	37.741	C.2	1	0FG301	0.000	
10	 CD1	36.042	3.911	42.309	C.3	1	0FG301	0.000	
11	CD11	33.420	3.379	37.814	C.2	1	0FG301	0.000	
12	 CD2	35.419	1.598	41.596	C.3	1	0FG301	0.000	
13	CD21	34.254	1.236	37.180	C.2	1	0FG301	0.000	
14	 CE1	34.551	3.981	37.305	C.2	1	0FG301	0.000	
15	 CE2	35.401	1.831	36.657	C.2	1	0FG301	0.000	
16	  CZ	35.564	3.221	36.706	C.2	1	0FG301	0.000	
17	  C1	29.938	1.771	39.647	C.2	1	0FG301	0.000	
18	  N1	32.242	1.809	40.663	N.pl3	1	0FG301	0.000	
19	  O1	29.586	0.760	40.206	O.2	1	0FG301	0.000	
20	  C2	26.796	4.430	40.689	C.2	1	0FG301	0.000	
21	  N2	29.088	2.648	39.127	N.pl3	1	0FG301	0.000	
22	  C3	26.434	4.952	41.901	C.2	1	0FG301	0.000	
23	  C4	26.528	4.177	43.039	C.2	1	0FG301	0.000	
24	  C5	26.990	2.870	42.980	C.2	1	0FG301	0.000	
25	  C6	27.354	2.335	41.744	C.2	1	0FG301	0.000	
26	  C7	27.635	2.537	39.213	C.3	1	0FG301	0.000	
27	 C11	27.260	3.113	40.575	C.2	1	0FG301	0.000	
28	   F	26.144	4.716	44.200	 F	1	0FG301	0.000	
@<TRIPOS>BOND
1 1 2 1
2 2 4 1
3 2 6 1
4 3 7 1
5 3 17 1
6 4 5 2
7 4 18 1
8 6 8 1
9 7 9 1
10 8 10 1
11 8 12 1
12 9 11 ar
13 9 13 ar
14 11 14 ar
15 13 15 ar
16 14 16 ar
17 15 16 ar
18 17 19 2
19 17 21 1
20 3 18 1
21 20 22 ar
22 22 23 ar
23 23 24 ar
24 23 28 1
25 24 25 ar
26 21 26 1
27 20 27 ar
28 25 27 ar
29 26 27 1
@<TRIPOS>SUBSTRUCTURE
M CHG 0
M NBR 17
